examples/feeders/CER3_2_34/CER3_2_34_Overload.Txt

Power Delivery Element Overload Report

SYMMETRICAL COMPONENT CURRENTS BY CIRCUIT ELEMENT 

Element                             Term    I1    IOver %Normal  %Emerg     I2    %I2/I1    I0    %I0/I1

"Line.IT_32_1124_67495"   1     3.6 -210.93     2.3   169.0     1.6    45.5     0.3     8.7
"Line.IT_32_1435_15360"   1     2.7 -211.74     2.0   142.0     0.8    28.3     0.8    28.5
"Line.IT_32_1435_15421"   1     3.5 -211.30     2.2   156.7     0.6    18.7     0.6    18.7
"Line.IT_32_1435_15422"   1     5.3 -210.29     2.6   190.4     0.4     6.6     0.4     7.0
"Line.IT_32_1435_15424"   1     4.7 -210.88     2.4   170.5     0.4     7.4     0.4     7.9
"Line.IT_32_1435_15426"   1     3.7 -211.44     2.1   152.0     0.6    16.5     0.6    17.0
"Line.IT_32_1435_15427"   1     2.8 -212.11     1.8   129.7     0.5    18.6     0.5    18.6
"Line.IT_32_1435_53429"   1     3.9 -211.37     2.1   154.2     0.7    17.7     0.7    18.1
"Line.IT_32_1716_15686"   1     2.4 -212.46     1.6   118.0     0.6    22.8     0.6    22.6
"Line.IT_32_1716_15688"   1     2.4 -212.62     1.6   112.5     0.5    21.0     0.5    20.8
"Line.IT_32_529_12812"    1     3.1 -212.06     1.8   131.2     0.3     9.6     0.7    21.8
"Line.IT_32_529_12814"    1     2.9 -212.13     1.8   128.9     0.3    10.5     0.7    25.4
"Line.IT_32_529_12815"    1     2.9 -212.13     1.8   128.9     0.3    10.5     0.7    25.4
"Line.IT_32_529_38122"    1     2.9 -212.06     1.8   131.2     0.3    10.3     0.7    24.8
"Line.IT_32_5676_59560"   1     9.1 -153.83     5.6   114.6     0.0     0.3     0.0     0.0
"Line.IT_32_5676_59561"   1     9.1 -153.83     5.6   114.6     0.0     0.3     0.0     0.0
"Line.IT_32_5676_59562"   1     9.1 -153.83     5.6   114.6     0.0     0.3     0.0     0.0
"Line.IT_32_5744_13823"   1     4.2 -211.75     2.0   141.6     0.0     0.0     0.0     0.0
"Line.IT_32_7485_40020"   1     1.7 -212.38     1.7   120.7     1.1    63.1     1.1    62.9
"Line.IT_32_961_13825"    1    21.2 -139.91    14.2   288.6     1.0     4.6     1.0     4.7
"Line.IT_39_1147_32208"   1     9.0 -154.04     5.5   112.0     0.0     0.0     0.0     0.0
"Line.IT_39_1147_32209"   1     9.0 -154.04     5.5   112.0     0.0     0.0     0.0     0.0
"Line.IT_39_2645_34192"   1     2.3 -211.97     1.9   134.3     2.3   100.0     0.0     0.0
"Line.IT_39_2645_34194"   1     2.3 -211.97     1.9   134.3     2.3   100.0     0.0     0.0
"Line.IT_39_2681_34196"   1    11.5 -277.61     4.6   148.8     2.7    23.2     0.5     4.0
"Line.IT_39_2681_34198"   1     7.4 -281.55     3.2   105.0     2.6    35.5     0.4     6.0
"Line.IT_39_2681_34202"   1     7.1 -281.83     3.1   101.8     2.6    36.9     0.4     6.3
"Line.IT_39_2681_34203"   1     5.8 -281.83     3.1   101.8     3.0    52.1     1.0    17.8
"Line.IT_39_2767_45879"   1    27.9 -187.36    13.3   954.5     1.1     4.0     0.1     0.2
"Line.IT_39_2767_53483"   1    27.9 -187.51    13.2   949.5     1.1     3.9     0.0     0.0
"Line.IT_39_3337_32912"   1    15.4 -147.59     9.5   192.7     0.0     0.3     0.0     0.0
"Line.IT_39_4490_32028"   1     5.7 -210.33     2.6   189.1     0.0     0.3     0.0     0.0
"Line.IT_39_4490_32029"   1     5.7 -210.33     2.6   189.1     0.0     0.3     0.0     0.0
"Line.IT_39_5159_49523"   1     4.4 -211.64     2.0   145.4     0.0     0.0     0.0     0.0
"Line.IT_39_520_32486"    1    29.7 -127.27    21.9   446.7     3.0    10.0     3.1    10.3
"Line.IT_39_520_32487"    1    43.0 -247.53    14.9   483.0     0.3     0.6     0.7     1.7
"Line.IT_39_520_32488"    1    29.4 -255.62    12.2   393.1     3.0    10.1     3.1    10.4
"Line.IT_39_520_32490"    1    42.2 -248.10    14.7   476.6     1.0     2.3     0.2     0.4
"Line.IT_39_521_33049"    1    17.6 -145.18    10.9   222.8     0.1     0.6     0.2     0.9
"Line.IT_39_521_33061"    1    19.6 -142.12    12.8   261.0     0.7     3.4     0.7     3.4
"Line.IT_39_521_53529"    1    19.6 -142.12    12.8   261.0     0.7     3.4     0.7     3.4
"Line.IT_39_521_8757"     1    17.8 -144.84    11.1   226.9     0.2     1.1     0.2     1.1
"Line.IT_39_5780_33923"   1     1.9 -212.32     1.7   122.7     0.9    48.4     0.9    48.7
"Line.IT_39_5780_33927"   1     2.1 -212.32     1.7   122.7     0.9    44.3     0.9    44.7
"Line.IT_39_5780_50940"   1     2.8 -211.13     2.3   162.4     1.1    40.1     1.1    40.4
"Line.IT_39_5780_50941"   1     4.4 -209.32     3.1   222.8     2.3    51.5     1.7    38.9
"Line.IT_39_5780_50945"   1     2.7 -211.13     2.3   162.4     1.3    46.9     1.3    47.3
"Line.IT_39_5780_50946"   1     5.7 -206.12     4.6   329.5     2.3    40.1     1.9    33.7
"Line.IT_39_6968_32179"   1    36.5 -179.42    16.9  1219.5     0.1     0.3     0.0     0.0
"Line.IT_39_6968_32181"   1    36.5 -179.42    16.9  1219.5     0.1     0.3     0.0     0.0
"Line.IT_39_90658_0"      1    20.8 -197.15     9.6   521.2     0.1     0.3     0.0     0.0
"Line.IT_40_1020_57450"   1     4.7 -211.33     2.2   155.5     0.0     0.0     0.0     0.0
"Line.IT_40_1020_57451"   1     4.5 -211.50     2.1   150.2     0.0     0.0     0.0     0.0
"Line.IT_40_1315_49409"   1     3.6 -212.35     1.7   121.6     0.0     0.0     0.0     0.0
"Line.IT_40_1641_29562"   1     3.3 -212.74     1.5   108.6     0.0     0.0     0.0     0.0
"Line.IT_40_1641_29563"   1     3.3 -212.74     1.5   108.6     0.0     0.0     0.0     0.0
"Line.IT_40_1888_60411"   1     3.5 -212.50     1.6   116.6     0.0     0.0     0.0     0.0
"Line.IT_40_1888_60413"   1     5.0 -211.02     2.3   166.1     0.0     0.0     0.0     0.0
"Line.IT_40_1982_30923"   1     8.1 -149.84     8.1   164.5     3.8    46.5     2.1    26.5
"Line.IT_40_1982_30925"   1     7.8 -150.79     7.5   152.6     3.5    45.2     1.8    23.7
"Line.IT_40_2088_30226"   1     8.4 -154.61     5.1   104.9     0.0     0.0     0.0     0.0
"Line.IT_40_2088_51062"   1     7.7 -208.33     3.5   255.5     0.0     0.0     0.0     0.0
"Line.IT_40_2112_30230"   1     4.6 -211.41     2.1   152.9     0.0     0.0     0.0     0.0
"Line.IT_40_2774_62101"   1    22.1 -140.84    13.6   277.0     0.0     0.1     0.0     0.0
"Line.IT_40_3131_40047"   1    15.8 -147.24     9.7   197.0     0.0     0.0     0.0     0.0
"Line.IT_40_3131_40048"   1    15.8 -147.24     9.7   197.0     0.0     0.0     0.0     0.0
"Line.IT_40_3131_40049"   1    15.8 -147.24     9.7   197.0     0.0     0.0     0.0     0.0
"Line.IT_40_3131_40051"   1    15.8 -147.24     9.7   197.0     0.0     0.0     0.0     0.0
"Line.IT_40_3365_57008"   1     1.9 -212.82     1.5   106.1     0.6    33.6     0.6    33.6
"Line.IT_40_3806_40057"   1     8.8 -154.23     5.4   109.6     0.0     0.0     0.0     0.0
"Line.IT_40_3806_40058"   1     8.8 -154.23     5.4   109.6     0.0     0.0     0.0     0.0
"Line.IT_40_3813_40578"   1    11.1 -151.94     6.8   138.2     0.0     0.1     0.0     0.0
"Line.IT_40_3813_40582"   1    11.9 -151.09     7.3   148.9     0.0     0.1     0.0     0.0
"Line.IT_40_4018_8739"    1     9.8 -153.22     6.0   122.2     0.0     0.0     0.0     0.0
"Line.IT_40_4411_29223"   1    12.2 -150.78     7.5   152.8     0.0     0.0     0.0     0.0
"Line.IT_40_4411_47305"   1    14.4 -148.63     8.8   179.6     0.0     0.0     0.0     0.0
"Line.IT_40_5149_33027"   1     6.7 -209.28     3.1   223.9     0.0     0.0     0.0     0.0
"Line.IT_40_5149_49495"   1     6.7 -209.28     3.1   223.9     0.0     0.0     0.0     0.0
"Line.IT_40_5149_49496"   1     6.7 -209.28     3.1   223.9     0.0     0.0     0.0     0.0
"Line.IT_40_531_29452"    1     3.5 -212.55     1.6   115.2     0.0     0.0     0.0     0.0
"Line.IT_40_531_30035"    1     3.5 -212.55     1.6   115.2     0.0     0.0     0.0     0.0
"Line.IT_40_531_30094"    1     3.5 -212.55     1.6   115.2     0.0     0.0     0.0     0.0
"Line.IT_40_531_57001"    1     3.5 -212.55     1.6   115.2     0.0     0.0     0.0     0.0
"Line.IT_40_5403_44224"   1     3.1 -212.86     1.5   104.5     0.0     0.0     0.0     0.0
"Line.IT_40_567_62783"    1     2.2 -212.95     1.4   101.7     0.5    22.2     0.5    22.3
"Line.IT_40_567_62784"    1     4.6 -208.92     3.3   236.1     1.6    34.9     1.6    34.9
"Line.IT_40_567_62785"    1     5.2 -207.29     4.0   290.2     2.1    39.8     2.1    39.8
"Line.IT_40_567_62793"    1     5.5 -210.02     2.8   199.5     0.3     5.3     0.3     5.3
"Line.IT_40_5773_30935"   1     5.1 -210.94     2.3   168.8     0.0     0.1     0.0     0.0
"Line.IT_40_5953_51478"   1     8.8 -154.16     5.4   110.5     0.0     0.0     0.0     0.0
"Line.IT_40_6040_44686"   1     3.4 -212.10     1.8   130.1     0.4    12.7     0.4    12.7
"Line.IT_40_6773_32406"   1     3.5 -212.51     1.6   116.2     0.0     0.0     0.0     0.0
"Line.IT_41_3509_28116"   1     3.4 -212.59     1.6   113.7     0.0     0.0     0.0     0.0
"Line.IT_47_2251_35452"   1     4.9 -211.12     2.3   162.7     0.0     0.0     0.0     0.0
"Line.MT1"                1    54.6 -550.75     9.1   613.9     0.9     1.6     0.5     0.9
"Line.MT101972_1"         1    26.1 -298.15     8.8   480.9     1.8     6.8     1.0     3.9
"Line.MT101973_1"         1    26.1 -297.95     8.9   484.1     1.8     7.1     1.1     4.1
"Line.MT101975_1"         1    26.1 -298.19     8.8   480.2     1.8     6.8     1.0     3.8
"Line.MT101978_1"         1    26.1 -298.19     8.8   480.2     1.8     6.8     1.0     3.8
"Line.MT101980_1"         1    26.1 -297.95     8.9   484.1     1.8     7.1     1.1     4.1
"Line.MT103646_1"         1     9.6 -152.72     6.3   128.5     0.7     7.2     0.0     0.4
"Line.MT104190_1"         1    54.6 -372.75    12.9  1381.3     0.9     1.6     0.5     0.9
"Line.MT104191_1"         1    54.6 -372.75    12.9  1381.3     0.9     1.6     0.5     0.9
"Line.MT104192_1"         1    54.6 -372.75    12.9  1381.3     0.9     1.6     0.5     0.9
"Line.MT104193_1"         1    54.6 -372.75    12.9  1381.3     0.9     1.6     0.5     0.9
"Line.MT104353_2"         1    54.6 -372.75    12.9  1381.2     0.9     1.6     0.5     0.9
"Line.MT104624_1"         1    21.4 -304.69     6.8   371.9     0.9     4.3     0.0     0.0
"Line.MT107982_1"         1    54.6 -372.75    12.9  1381.2     0.9     1.6     0.5     0.9
"Line.MT111809_1"         1    52.4 -374.50    12.5  1337.4     1.4     2.6     0.2     0.4
"Line.MT112361_1"         1    38.6 -284.10    13.1   715.1     2.6     6.8     2.0     5.2
"Line.MT112636_1"         1     6.7 -155.00     4.9   100.0     0.9    13.4     0.9    13.8
"Line.MT116206_1"         1    10.0 -152.27     6.6   134.2     0.8     8.0     0.0     0.3
"Line.MT118750_1"         1     8.7 -152.61     6.4   129.8     0.9     9.9     1.0    11.5
"Line.MT118752_1"         1     8.8 -152.50     6.4   131.2     0.9     9.7     1.0    11.4
"Line.MT122436_1"         1    54.6 -372.75    12.9  1381.2     0.9     1.6     0.5     0.9
"Line.MT125388_1"         1    33.4 -289.08    11.6   632.0     2.8     8.3     2.0     5.9
"Line.MT130201_1"         1    33.4 -288.83    11.7   636.2     2.9     8.5     2.0     6.1
"Line.MT130259_1"         1     8.6 -152.72     6.3   128.5     0.9     9.9     1.0    11.4
"Line.MT130437_1"         1    25.8 -298.57     8.7   473.8     1.7     6.6     0.9     3.5
"Line.MT132709_1"         1    32.9 -289.83    11.4   619.4     2.6     8.0     1.8     5.5
"Line.MT135143_1"         1     8.7 -152.61     6.4   129.9     0.9    10.1     1.0    11.5
"Line.MT14207_1"          1     9.1 -153.37     5.9   120.4     0.6     6.3     0.0     0.4
"Line.MT14208_1"          1     9.1 -153.37     5.9   120.4     0.6     6.3     0.0     0.4
"Line.MT14209_1"          1     9.1 -153.37     5.9   120.4     0.6     6.3     0.0     0.4
"Line.MT14213_1"          1     9.1 -153.37     5.9   120.4     0.6     6.3     0.0     0.4
"Line.MT14219_1"          1     9.1 -153.37     5.9   120.4     0.6     6.3     0.0     0.4
"Line.MT14220_1"          1     9.1 -153.37     5.9   120.4     0.6     6.3     0.0     0.4
"Line.MT14222_1"          1     9.1 -153.37     5.9   120.4     0.6     6.3     0.0     0.4
"Line.MT14239_1"          1     9.6 -152.72     6.3   128.5     0.7     7.2     0.0     0.4
"Line.MT14241_1"          1     9.6 -152.72     6.3   128.5     0.7     7.2     0.0     0.4
"Line.MT14243_1"          1     9.6 -152.72     6.3   128.5     0.7     7.2     0.0     0.4
"Line.MT14252_1"          1    10.0 -152.27     6.6   134.2     0.8     8.0     0.0     0.3
"Line.MT14253_1"          1    10.0 -152.27     6.6   134.2     0.8     8.0     0.0     0.3
"Line.MT14256_1"          1    10.0 -152.27     6.6   134.2     0.8     8.0     0.0     0.3
"Line.MT14257_1"          1    10.0 -152.27     6.6   134.2     0.8     8.0     0.0     0.3
"Line.MT14258_1"          1    10.0 -152.27     6.6   134.2     0.8     8.0     0.0     0.3
"Line.MT14260_1"          1    10.2 -152.04     6.7   137.0     0.8     8.2     0.0     0.3
"Line.MT14261_1"          1    10.2 -152.04     6.7   137.0     0.8     8.2     0.0     0.3
"Line.MT14262_1"          1    11.1 -151.04     7.3   149.5     0.9     7.8     0.0     0.3
"Line.MT14263_1"          1    11.1 -151.04     7.3   149.5     0.9     7.8     0.0     0.3
"Line.MT14270_1"          1    11.1 -151.04     7.3   149.5     0.9     7.8     0.0     0.3
"Line.MT14271_1"          1    11.1 -151.04     7.3   149.5     0.9     7.8     0.0     0.3
"Line.MT14283_1"          1    11.1 -151.04     7.3   149.5     0.9     7.8     0.0     0.3
"Line.MT14284_1"          1    11.1 -151.04     7.3   149.5     0.9     7.8     0.0     0.3
"Line.MT143288_1"         1    21.4 -304.68     6.8   371.9     0.9     4.3     0.0     0.0
"Line.MT14344_1"          1    45.4 -379.86    11.2  1203.5     1.7     3.8     1.2     2.6
"Line.MT14345_1"          1    45.4 -379.86    11.2  1203.5     1.7     3.8     1.2     2.6
"Line.MT14346_1"          1    45.4 -379.86    11.2  1203.5     1.7     3.8     1.2     2.6
"Line.MT14347_1"          1    45.4 -379.86    11.2  1203.5     1.7     3.8     1.2     2.6
"Line.MT14348_1"          1    45.4 -379.86    11.2  1203.5     1.7     3.8     1.2     2.6
"Line.MT14349_1"          1    45.4 -379.81    11.3  1204.8     1.7     3.7     1.2     2.6
"Line.MT14351_1"          1    47.2 -379.82    11.3  1204.5     1.8     3.7     0.0     0.0
"Line.MT14352_1"          1    47.2 -379.82    11.3  1204.5     1.8     3.7     0.0     0.0
"Line.MT14353_1"          1    47.4 -379.68    11.3  1208.0     1.8     3.7     0.0     0.0
"Line.MT14355_1"          1    47.4 -379.68    11.3  1208.0     1.8     3.7     0.0     0.0
"Line.MT14356_1"          1    47.4 -379.68    11.3  1208.0     1.8     3.7     0.0     0.0
"Line.MT14357_1"          1    47.4 -379.68    11.3  1208.0     1.8     3.7     0.0     0.0
"Line.MT14358_1"          1    47.4 -379.63    11.3  1209.3     1.8     3.7     0.0     0.0
"Line.MT144651_1"         1    40.1 -282.79    13.5   736.8     2.5     6.3     1.9     4.7
"Line.MT15187_1"          1    47.4 -379.63    11.3  1209.3     1.8     3.7     0.0     0.0
"Line.MT15188_1"          1    47.4 -379.63    11.3  1209.3     1.8     3.7     0.0     0.0
"Line.MT15189_1"          1    47.4 -379.63    11.3  1209.3     1.8     3.7     0.0     0.0
"Line.MT15190_1"          1    47.7 -379.28    11.4  1218.0     1.8     3.7     0.0     0.0
"Line.MT15191_1"          1    47.7 -379.28    11.4  1218.0     1.8     3.7     0.0     0.0
"Line.MT15194_1"          1    48.3 -378.54    11.6  1236.5     1.7     3.5     0.1     0.3
"Line.MT15225_1"          1    48.3 -378.54    11.6  1236.5     1.7     3.5     0.1     0.3
"Line.MT15226_1"          1    48.3 -378.54    11.6  1236.5     1.7     3.5     0.1     0.3
"Line.MT15227_1"          1    48.3 -378.54    11.6  1236.5     1.7     3.5     0.1     0.3
"Line.MT15228_1"          1    48.3 -378.54    11.6  1236.5     1.7     3.5     0.1     0.3
"Line.MT15229_1"          1    48.3 -378.54    11.6  1236.4     1.7     3.5     0.1     0.3
"Line.MT15230_1"          1    48.3 -378.54    11.6  1236.4     1.7     3.5     0.1     0.3
"Line.MT15231_1"          1    48.3 -378.54    11.6  1236.4     1.7     3.5     0.1     0.3
"Line.MT15234_1"          1    48.3 -378.54    11.6  1236.5     1.7     3.5     0.1     0.3
"Line.MT15240_1"          1    48.3 -378.54    11.6  1236.5     1.7     3.5     0.1     0.3
"Line.MT15241_1"          1    48.3 -378.54    11.6  1236.5     1.7     3.5     0.1     0.3
"Line.MT15242_1"          1    48.3 -378.54    11.6  1236.5     1.7     3.5     0.1     0.3
"Line.MT15243_1"          1    48.3 -378.54    11.6  1236.5     1.7     3.5     0.1     0.3
"Line.MT15244_1"          1    48.3 -378.54    11.6  1236.5     1.7     3.5     0.1     0.3
"Line.MT15245_1"          1    48.3 -378.54    11.6  1236.5     1.7     3.5     0.1     0.3
"Line.MT15246_1"          1    48.3 -378.54    11.6  1236.5     1.7     3.5     0.1     0.3
"Line.MT15247_1"          1    48.3 -378.54    11.6  1236.5     1.7     3.5     0.1     0.3
"Line.MT15248_1"          1    48.3 -378.54    11.6  1236.5     1.7     3.5     0.1     0.3
"Line.MT15249_1"          1    48.3 -378.54    11.6  1236.5     1.7     3.5     0.1     0.3
"Line.MT15250_1"          1    48.3 -378.54    11.6  1236.5     1.7     3.5     0.1     0.3
"Line.MT15252_1"          1    48.3 -378.54    11.6  1236.5     1.7     3.5     0.1     0.3
"Line.MT15253_1"          1    48.3 -378.54    11.6  1236.5     1.7     3.5     0.1     0.3
"Line.MT15255_1"          1    48.3 -378.54    11.6  1236.5     1.7     3.5     0.1     0.3
"Line.MT15256_1"          1    48.3 -378.54    11.6  1236.5     1.7     3.5     0.1     0.3
"Line.MT15257_1"          1    48.3 -378.54    11.6  1236.5     1.7     3.5     0.1     0.3
"Line.MT15258_1"          1    48.3 -378.54    11.6  1236.4     1.7     3.5     0.1     0.3
"Line.MT15259_1"          1    48.3 -378.54    11.6  1236.4     1.7     3.5     0.1     0.3
"Line.MT15260_1"          1    48.3 -378.54    11.6  1236.4     1.7     3.5     0.1     0.3
"Line.MT15261_1"          1    48.3 -378.54    11.6  1236.4     1.7     3.5     0.1     0.3
"Line.MT15262_1"          1    48.3 -378.54    11.6  1236.4     1.7     3.5     0.1     0.3
"Line.MT15263_1"          1    48.3 -378.54    11.6  1236.4     1.7     3.5     0.1     0.3
"Line.MT15265_1"          1    48.3 -378.42    11.6  1239.4     1.7     3.6     0.2     0.4
"Line.MT15273_1"          1    48.5 -378.31    11.6  1242.2     1.6     3.2     0.2     0.4
"Line.MT15274_1"          1    48.5 -378.31    11.6  1242.2     1.6     3.2     0.2     0.4
"Line.MT15275_1"          1    48.5 -378.31    11.6  1242.2     1.6     3.2     0.2     0.4
"Line.MT15276_1"          1    48.5 -378.31    11.6  1242.2     1.6     3.2     0.2     0.4
"Line.MT15277_1"          1    48.5 -378.31    11.6  1242.2     1.6     3.2     0.2     0.4
"Line.MT15278_1"          1    48.5 -378.31    11.6  1242.2     1.6     3.2     0.2     0.4
"Line.MT15279_1"          1    48.5 -378.31    11.6  1242.1     1.6     3.2     0.2     0.4
"Line.MT15280_1"          1    48.5 -378.30    11.6  1242.6     1.6     3.2     0.2     0.4
"Line.MT15281_1"          1    48.5 -378.30    11.6  1242.5     1.6     3.2     0.2     0.4
"Line.MT15282_1"          1    48.5 -378.30    11.6  1242.5     1.6     3.2     0.2     0.4
"Line.MT15283_1"          1    48.5 -378.30    11.6  1242.5     1.6     3.2     0.2     0.4
"Line.MT15284_1"          1    48.7 -378.30    11.6  1242.5     1.7     3.4     0.2     0.4
"Line.MT15512_1"          1     8.7 -152.61     6.4   129.9     0.9     9.9     1.0    11.5
"Line.MT15513_1"          1     8.7 -152.61     6.4   129.9     0.9    10.1     1.0    11.5
"Line.MT15514_1"          1     8.7 -152.61     6.4   129.9     0.9    10.1     1.0    11.5
"Line.MT15515_1"          1     8.7 -152.61     6.4   129.9     0.9    10.1     1.0    11.5
"Line.MT15524_1"          1     8.7 -152.67     6.3   129.2     0.9     9.9     1.0    11.4
"Line.MT15526_1"          1     8.6 -152.72     6.3   128.5     0.9     9.9     1.0    11.4
"Line.MT15527_1"          1     8.6 -152.72     6.3   128.5     0.9     9.9     1.0    11.4
"Line.MT15528_1"          1     8.6 -152.72     6.3   128.5     0.9     9.9     1.0    11.4
"Line.MT15529_1"          1     8.6 -152.72     6.3   128.5     0.9     9.9     1.0    11.4
"Line.MT15530_1"          1     8.6 -152.72     6.3   128.5     0.9     9.9     1.0    11.4
"Line.MT15531_1"          1     8.6 -152.73     6.3   128.3     0.9    10.0     1.0    11.4
"Line.MT15532_1"          1     8.6 -152.73     6.3   128.3     0.9    10.0     1.0    11.4
"Line.MT15552_1"          1     7.5 -154.19     5.4   110.1     0.7     9.2     0.8    11.1
"Line.MT15573_1"          1    22.0 -303.50     7.2   391.6     1.2     5.5     0.3     1.4
"Line.MT15575_1"          1    22.0 -303.50     7.2   391.6     1.2     5.5     0.3     1.4
"Line.MT15576_1"          1    22.0 -303.50     7.2   391.6     1.2     5.5     0.3     1.4
"Line.MT15577_1"          1    25.5 -298.88     8.6   468.6     1.7     6.7     0.9     3.6
"Line.MT15578_1"          1    25.5 -298.88     8.6   468.6     1.7     6.7     0.9     3.6
"Line.MT15579_1"          1    25.5 -298.88     8.6   468.6     1.7     6.7     0.9     3.6
"Line.MT15580_1"          1    25.6 -298.75     8.6   470.8     1.7     6.7     0.9     3.6
"Line.MT15581_1"          1    25.8 -298.57     8.7   473.8     1.7     6.6     0.9     3.5
"Line.MT15612_1"          1    26.0 -298.47     8.7   475.5     1.7     6.5     0.9     3.5
"Line.MT15625_1"          1    25.8 -298.57     8.7   473.8     1.7     6.6     0.9     3.5
"Line.MT15661_1"          1    48.7 -378.28    11.6  1243.0     1.7     3.4     0.2     0.4
"Line.MT15662_1"          1    48.7 -378.28    11.6  1243.0     1.7     3.4     0.2     0.4
"Line.MT15663_1"          1    48.7 -378.28    11.6  1243.0     1.7     3.4     0.2     0.4
"Line.MT15664_1"          1    48.8 -378.28    11.6  1243.0     1.6     3.2     0.1     0.2
"Line.MT15665_1"          1    48.9 -378.20    11.6  1245.1     1.5     3.2     0.1     0.2
"Line.MT15666_1"          1    48.9 -378.20    11.6  1245.1     1.5     3.2     0.1     0.2
"Line.MT15667_1"          1    48.9 -378.20    11.6  1245.1     1.5     3.2     0.1     0.2
"Line.MT15668_1"          1    48.9 -378.20    11.6  1245.1     1.5     3.0     0.0     0.1
"Line.MT15669_1"          1    48.9 -378.20    11.6  1245.1     1.5     3.0     0.0     0.1
"Line.MT15670_1"          1    48.9 -378.20    11.6  1245.1     1.5     3.0     0.0     0.1
"Line.MT15671_1"          1    48.9 -378.20    11.6  1245.1     1.5     3.0     0.0     0.1
"Line.MT15672_1"          1    48.9 -378.20    11.6  1245.1     1.5     3.0     0.0     0.1
"Line.MT15673_1"          1    49.0 -378.06    11.7  1248.4     1.5     3.1     0.1     0.1
"Line.MT15674_1"          1    49.0 -378.06    11.7  1248.4     1.5     3.1     0.1     0.1
"Line.MT15675_1"          1    49.0 -378.06    11.7  1248.4     1.5     3.1     0.1     0.1
"Line.MT15676_1"          1    49.0 -378.06    11.7  1248.4     1.5     3.1     0.1     0.1
"Line.MT15677_1"          1    49.0 -378.06    11.7  1248.4     1.5     3.1     0.1     0.1
"Line.MT15679_1"          1    49.2 -377.50    11.8  1262.5     1.6     3.3     0.3     0.5
"Line.MT15680_1"          1    49.2 -377.50    11.8  1262.5     1.6     3.3     0.3     0.5
"Line.MT15681_1"          1    49.2 -377.50    11.8  1262.5     1.6     3.3     0.3     0.5
"Line.MT15683_1"          1    49.3 -377.50    11.8  1262.4     1.7     3.4     0.2     0.5
"Line.MT16569_1"          1    11.1 -151.04     7.3   149.5     0.9     7.8     0.0     0.3
"Line.MT16921_1"          1    11.1 -151.04     7.3   149.5     0.9     7.8     0.0     0.3
"Line.MT16923_1"          1    11.1 -151.04     7.3   149.5     0.9     7.8     0.0     0.3
"Line.MT16924_1"          1    11.6 -150.57     7.6   155.3     0.9     7.6     0.0     0.3
"Line.MT16925_1"          1    11.6 -150.57     7.6   155.3     0.9     7.6     0.0     0.3
"Line.MT16926_1"          1    11.6 -150.57     7.6   155.3     0.9     7.6     0.0     0.3
"Line.MT16927_1"          1    11.6 -150.57     7.6   155.3     0.9     7.6     0.0     0.3
"Line.MT16928_1"          1    11.6 -150.57     7.6   155.3     0.9     7.6     0.0     0.3
"Line.MT16929_1"          1    11.6 -150.58     7.6   155.3     0.9     7.6     0.0     0.3
"Line.MT16932_1"          1    21.7 -304.28     6.9   378.7     1.0     4.5     0.1     0.4
"Line.MT16934_1"          1    21.9 -303.62     7.1   389.7     1.2     5.4     0.3     1.3
"Line.MT16935_1"          1    21.9 -303.56     7.2   390.7     1.2     5.5     0.3     1.4
"Line.MT16966_1"          1    21.9 -303.56     7.2   390.7     1.2     5.5     0.3     1.4
"Line.MT16967_1"          1    21.9 -303.56     7.2   390.7     1.2     5.5     0.3     1.4
"Line.MT16969_1"          1    21.9 -303.56     7.2   390.7     1.2     5.5     0.3     1.4
"Line.MT16986_1"          1    26.0 -298.47     8.7   475.5     1.7     6.5     0.9     3.5
"Line.MT16987_1"          1    26.0 -298.45     8.7   475.9     1.7     6.5     0.9     3.5
"Line.MT16988_1"          1    26.0 -298.45     8.7   475.9     1.7     6.5     0.9     3.5
"Line.MT16989_1"          1    26.0 -298.45     8.7   475.9     1.7     6.5     0.9     3.5
"Line.MT16990_1"          1    26.1 -298.19     8.8   480.2     1.8     6.8     1.0     3.8
"Line.MT17008_1"          1    26.1 -297.95     8.9   484.1     1.8     7.1     1.1     4.1
"Line.MT17009_1"          1    26.1 -297.95     8.9   484.1     1.8     7.1     1.1     4.1
"Line.MT17010_1"          1    26.1 -297.96     8.9   484.1     1.8     7.1     1.1     4.1
"Line.MT17011_1"          1    26.2 -297.83     8.9   486.2     1.9     7.2     1.1     4.3
"Line.MT17013_1"          1    26.2 -297.83     8.9   486.2     1.9     7.2     1.1     4.3
"Line.MT17014_1"          1    26.2 -297.83     8.9   486.2     1.9     7.2     1.1     4.3
"Line.MT17015_1"          1    26.2 -297.83     8.9   486.2     1.9     7.2     1.1     4.3
"Line.MT17016_1"          1    32.9 -289.83    11.4   619.4     2.6     8.0     1.8     5.5
"Line.MT17017_1"          1    32.9 -289.81    11.4   619.9     2.6     8.0     1.8     5.5
"Line.MT17019_1"          1    32.9 -289.81    11.4   619.9     2.6     8.0     1.8     5.5
"Line.MT17020_1"          1    32.9 -289.81    11.4   619.9     2.6     8.0     1.8     5.5
"Line.MT17021_1"          1    32.9 -289.81    11.4   619.9     2.6     8.0     1.8     5.5
"Line.MT17022_1"          1    32.9 -289.81    11.4   619.9     2.6     8.0     1.8     5.5
"Line.MT17023_1"          1    32.9 -289.81    11.4   619.8     2.6     8.0     1.8     5.5
"Line.MT17024_1"          1    32.9 -289.81    11.4   619.8     2.6     8.0     1.8     5.5
"Line.MT17025_1"          1    32.9 -289.81    11.4   619.8     2.6     8.0     1.8     5.5
"Line.MT17026_1"          1    32.9 -289.81    11.4   619.9     2.6     8.0     1.8     5.5
"Line.MT17027_1"          1    32.9 -289.81    11.4   619.9     2.6     8.0     1.8     5.5
"Line.MT17028_1"          1    32.9 -289.81    11.4   619.8     2.6     8.0     1.8     5.5
"Line.MT17029_1"          1    32.9 -289.74    11.4   621.0     2.7     8.1     1.8     5.5
"Line.MT17030_1"          1    32.9 -289.74    11.4   621.0     2.7     8.1     1.8     5.5
"Line.MT17031_1"          1    32.9 -289.74    11.4   621.0     2.7     8.1     1.8     5.5
"Line.MT17032_1"          1    32.9 -289.74    11.4   621.0     2.7     8.1     1.8     5.5
"Line.MT17343_1"          1     6.7 -154.98     4.9   100.3     0.7    10.9     0.8    12.5
"Line.MT17344_1"          1     6.7 -154.98     4.9   100.3     0.7    10.9     0.8    12.5
"Line.MT18748_1"          1    32.9 -289.74    11.4   621.0     2.7     8.1     1.8     5.5
"Line.MT18749_1"          1    32.9 -289.65    11.4   622.5     2.7     8.2     1.9     5.6
"Line.MT18750_1"          1    32.9 -289.65    11.4   622.5     2.7     8.2     1.9     5.6
"Line.MT18751_1"          1    32.9 -289.65    11.4   622.5     2.7     8.2     1.9     5.6
"Line.MT18752_1"          1    33.0 -289.50    11.5   625.0     2.7     8.3     1.9     5.8
"Line.MT18769_1"          1     6.7 -155.00     4.9   100.0     0.9    13.4     0.9    13.8
"Line.MT18770_1"          1     6.7 -155.00     4.9   100.0     0.9    13.4     0.9    13.8
"Line.MT21108_1"          1    38.6 -284.15    13.1   714.2     2.6     6.7     2.0     5.2
"Line.MT21111_1"          1    38.6 -284.15    13.1   714.2     2.6     6.7     2.0     5.2
"Line.MT21112_1"          1    38.6 -284.15    13.1   714.2     2.6     6.7     2.0     5.2
"Line.MT21113_1"          1    38.6 -284.15    13.1   714.2     2.6     6.7     2.0     5.2
"Line.MT21114_1"          1    38.6 -284.15    13.1   714.2     2.6     6.7     2.0     5.2
"Line.MT21115_1"          1    38.6 -284.15    13.1   714.2     2.6     6.7     2.0     5.2
"Line.MT21116_1"          1    38.6 -284.15    13.1   714.2     2.6     6.7     2.0     5.2
"Line.MT21117_1"          1    38.6 -284.15    13.1   714.2     2.6     6.7     2.0     5.2
"Line.MT21118_1"          1    38.6 -284.15    13.1   714.2     2.6     6.7     2.0     5.2
"Line.MT21119_1"          1    38.6 -284.15    13.1   714.2     2.6     6.7     2.0     5.2
"Line.MT21120_1"          1    38.6 -284.15    13.1   714.2     2.6     6.7     2.0     5.2
"Line.MT21121_1"          1    38.6 -284.15    13.1   714.2     2.6     6.7     2.0     5.2
"Line.MT21122_1"          1    38.6 -284.15    13.1   714.2     2.6     6.7     2.0     5.2
"Line.MT21123_1"          1    38.6 -284.15    13.1   714.2     2.6     6.7     2.0     5.2
"Line.MT21124_1"          1    38.6 -284.09    13.1   715.1     2.6     6.8     2.0     5.2
"Line.MT21125_1"          1    38.6 -284.09    13.1   715.1     2.6     6.8     2.0     5.2
"Line.MT21126_1"          1    39.9 -282.79    13.5   736.8     2.6     6.6     2.0     5.1
"Line.MT21127_1"          1    39.9 -282.79    13.5   736.8     2.6     6.6     2.0     5.1
"Line.MT21128_1"          1    40.1 -282.79    13.5   736.8     2.5     6.3     1.9     4.7
"Line.MT21136_1"          1    40.1 -282.79    13.5   736.8     2.5     6.3     1.9     4.7
"Line.MT21137_1"          1    40.1 -282.79    13.5   736.8     2.5     6.3     1.9     4.7
"Line.MT21138_1"          1    45.4 -379.86    11.2  1203.5     1.7     3.8     1.2     2.6
"Line.MT21139_1"          1     5.3 -320.32     2.0   111.4     0.9    16.8     0.7    13.8
"Line.MT21596_1"          1    52.8 -374.41    12.5  1339.8     1.1     2.1     0.4     0.7
"Line.MT21597_1"          1    52.8 -374.41    12.5  1339.8     1.1     2.1     0.4     0.7
"Line.MT21599_1"          1    52.8 -374.41    12.5  1339.8     1.1     2.1     0.4     0.7
"Line.MT21600_1"          1    52.8 -374.41    12.5  1339.8     1.1     2.1     0.4     0.7
"Line.MT21601_1"          1    52.8 -374.41    12.5  1339.8     1.1     2.1     0.4     0.7
"Line.MT21602_1"          1    52.9 -374.41    12.5  1339.7     1.0     1.9     0.4     0.8
"Line.MT21607_1"          1    52.9 -374.41    12.5  1339.7     1.0     1.9     0.4     0.8
"Line.MT21609_1"          1    53.1 -374.18    12.6  1345.5     1.0     1.8     0.4     0.8
"Line.MT21610_1"          1    53.1 -374.18    12.6  1345.5     1.0     1.8     0.4     0.8
"Line.MT21617_1"          1    53.9 -373.41    12.8  1364.7     1.0     1.8     0.4     0.8
"Line.MT21618_1"          1    53.9 -373.41    12.8  1364.7     1.0     1.8     0.4     0.8
"Line.MT21619_1"          1    53.9 -373.41    12.8  1364.7     1.0     1.8     0.4     0.8
"Line.MT21620_1"          1    53.9 -373.41    12.8  1364.7     1.0     1.8     0.4     0.8
"Line.MT21621_1"          1    53.9 -373.41    12.8  1364.7     1.0     1.8     0.4     0.8
"Line.MT21622_1"          1    53.9 -373.41    12.8  1364.7     1.0     1.8     0.4     0.8
"Line.MT21623_1"          1    53.9 -373.41    12.8  1364.7     1.0     1.8     0.4     0.8
"Line.MT21624_1"          1    53.9 -373.41    12.8  1364.7     1.0     1.8     0.4     0.8
"Line.MT21625_1"          1    53.9 -373.41    12.8  1364.7     1.0     1.8     0.4     0.8
"Line.MT21626_1"          1    53.9 -373.41    12.8  1364.7     1.0     1.8     0.4     0.8
"Line.MT21627_1"          1    53.9 -373.41    12.8  1364.7     1.0     1.8     0.4     0.8
"Line.MT21628_1"          1    53.9 -373.41    12.8  1364.7     1.0     1.8     0.4     0.8
"Line.MT21629_1"          1    53.9 -373.41    12.8  1364.7     1.0     1.8     0.4     0.8
"Line.MT21630_1"          1    53.9 -373.41    12.8  1364.7     1.0     1.8     0.4     0.8
"Line.MT21631_1"          1    53.9 -373.41    12.8  1364.7     1.0     1.8     0.4     0.8
"Line.MT21632_1"          1    53.9 -373.41    12.8  1364.7     1.0     1.8     0.5     0.8
"Line.MT21633_1"          1    53.9 -373.38    12.8  1365.4     1.0     1.8     0.5     0.8
"Line.MT21634_1"          1    53.9 -373.39    12.8  1365.4     1.0     1.8     0.5     0.8
"Line.MT21635_1"          1    53.9 -373.39    12.8  1365.4     1.0     1.8     0.5     0.8
"Line.MT21636_1"          1    53.9 -373.39    12.8  1365.4     1.0     1.8     0.5     0.8
"Line.MT21637_1"          1    53.9 -373.39    12.8  1365.4     1.0     1.8     0.5     0.8
"Line.MT21638_1"          1    53.9 -373.39    12.8  1365.4     1.0     1.8     0.5     0.8
"Line.MT21639_1"          1    53.9 -373.39    12.8  1365.3     1.0     1.8     0.5     0.8
"Line.MT21640_1"          1    54.0 -373.27    12.8  1368.3     0.9     1.7     0.5     1.0
"Line.MT22853_1"          1    49.3 -377.50    11.8  1262.4     1.7     3.4     0.2     0.5
"Line.MT22854_1"          1    49.3 -377.50    11.8  1262.4     1.7     3.4     0.2     0.5
"Line.MT22908_1"          1    45.4 -379.81    11.3  1204.8     1.7     3.7     1.2     2.6
"Line.MT23429_1"          1     7.5 -154.19     5.4   110.1     0.7     9.2     0.8    11.1
"Line.MT23430_1"          1     6.7 -154.98     4.9   100.3     0.7    10.8     0.8    12.4
"Line.MT23431_1"          1     7.5 -154.19     5.4   110.1     0.7     9.2     0.8    11.1
"Line.MT23432_1"          1     7.5 -154.19     5.4   110.1     0.7     9.2     0.8    11.1
"Line.MT23433_1"          1     7.5 -154.19     5.4   110.1     0.7     9.2     0.8    11.1
"Line.MT23434_1"          1     7.5 -154.19     5.4   110.1     0.7     9.2     0.8    11.1
"Line.MT23435_1"          1     7.5 -154.19     5.4   110.1     0.7     9.2     0.8    11.1
"Line.MT23436_1"          1     6.7 -154.98     4.9   100.3     0.7    10.9     0.8    12.5
"Line.MT23437_1"          1     6.7 -154.98     4.9   100.3     0.7    10.9     0.8    12.5
"Line.MT23803_1"          1     8.8 -152.50     6.4   131.2     0.9     9.7     1.0    11.4
"Line.MT23804_1"          1     8.8 -152.50     6.4   131.2     0.9     9.7     1.0    11.4
"Line.MT23805_1"          1     8.8 -152.50     6.4   131.2     0.9     9.7     1.0    11.4
"Line.MT23806_1"          1     9.0 -152.31     6.6   133.7     0.8     9.4     1.0    11.1
"Line.MT23807_1"          1     8.8 -152.50     6.4   131.2     0.9     9.7     1.0    11.4
"Line.MT23808_1"          1     9.0 -152.31     6.6   133.7     0.8     9.4     1.0    11.1
"Line.MT23809_1"          1     9.0 -152.31     6.6   133.7     0.8     9.4     1.0    11.1
"Line.MT23810_1"          1     9.0 -152.31     6.6   133.7     0.8     9.4     1.0    11.1
"Line.MT23811_1"          1     9.0 -152.31     6.6   133.7     0.8     9.4     1.0    11.1
"Line.MT25292_1"          1    40.1 -282.79    13.5   736.8     2.5     6.3     1.9     4.7
"Line.MT25293_1"          1    45.4 -379.86    11.2  1203.5     1.7     3.8     1.2     2.6
"Line.MT28013_1"          1    49.3 -377.50    11.8  1262.4     1.7     3.4     0.2     0.5
"Line.MT28014_1"          1    49.3 -377.50    11.8  1262.4     1.7     3.4     0.2     0.5
"Line.MT28015_1"          1    49.3 -377.50    11.8  1262.4     1.7     3.4     0.2     0.5
"Line.MT28016_1"          1    49.3 -377.50    11.8  1262.4     1.7     3.4     0.2     0.5
"Line.MT28017_1"          1    49.3 -377.50    11.8  1262.4     1.7     3.4     0.2     0.5
"Line.MT28018_1"          1    49.4 -377.50    11.8  1262.4     1.7     3.5     0.3     0.5
"Line.MT28019_1"          1    49.4 -377.45    11.8  1263.8     1.7     3.5     0.3     0.6
"Line.MT28020_1"          1    49.4 -377.45    11.8  1263.8     1.7     3.5     0.3     0.6
"Line.MT28024_1"          1    49.4 -377.45    11.8  1263.7     1.7     3.5     0.3     0.6
"Line.MT28025_1"          1    49.5 -377.45    11.8  1263.7     1.7     3.4     0.2     0.4
"Line.MT28026_1"          1    49.5 -377.45    11.8  1263.7     1.7     3.4     0.2     0.4
"Line.MT28027_1"          1    49.5 -377.45    11.8  1263.7     1.7     3.4     0.2     0.4
"Line.MT28028_1"          1    49.5 -377.45    11.8  1263.7     1.7     3.4     0.2     0.4
"Line.MT28029_1"          1    49.5 -377.45    11.8  1263.7     1.7     3.4     0.2     0.4
"Line.MT28030_1"          1    49.5 -377.45    11.8  1263.7     1.7     3.4     0.2     0.4
"Line.MT28032_1"          1    49.5 -377.45    11.8  1263.7     1.7     3.4     0.2     0.4
"Line.MT28033_1"          1    49.5 -377.45    11.8  1263.7     1.7     3.4     0.2     0.4
"Line.MT28034_1"          1    49.5 -377.45    11.8  1263.7     1.7     3.4     0.2     0.4
"Line.MT28035_1"          1    49.5 -377.45    11.8  1263.7     1.7     3.4     0.2     0.4
"Line.MT28037_1"          1    52.4 -374.50    12.5  1337.4     1.4     2.6     0.2     0.4
"Line.MT28042_1"          1    52.4 -374.50    12.5  1337.4     1.4     2.6     0.2     0.4
"Line.MT28043_1"          1    52.4 -374.50    12.5  1337.4     1.4     2.6     0.2     0.4
"Line.MT28044_1"          1    52.5 -374.41    12.5  1339.8     1.4     2.7     0.2     0.4
"Line.MT28046_1"          1    52.5 -374.41    12.5  1339.8     1.4     2.7     0.2     0.4
"Line.MT28048_1"          1    52.5 -374.41    12.5  1339.8     1.4     2.7     0.2     0.4
"Line.MT28049_1"          1    52.5 -374.41    12.5  1339.8     1.4     2.7     0.2     0.4
"Line.MT28050_1"          1    52.5 -374.41    12.5  1339.8     1.4     2.7     0.2     0.4
"Line.MT28051_1"          1    52.8 -374.41    12.5  1339.8     1.1     2.1     0.4     0.7
"Line.MT28480_1"          1    54.3 -372.98    12.9  1375.5     0.9     1.7     0.5     1.0
"Line.MT28481_1"          1    54.3 -372.98    12.9  1375.5     0.9     1.7     0.5     1.0
"Line.MT28482_1"          1    54.3 -372.98    12.9  1375.5     0.9     1.7     0.5     1.0
"Line.MT28483_1"          1    54.3 -372.98    12.9  1375.5     0.9     1.7     0.5     1.0
"Line.MT28484_1"          1    54.3 -372.97    12.9  1375.7     0.9     1.7     0.5     1.0
"Line.MT28485_1"          1    54.3 -372.97    12.9  1375.7     0.9     1.7     0.5     1.0
"Line.MT28492_1"          1    54.6 -372.74    12.9  1381.4     0.9     1.6     0.5     0.9
"Line.MT36929_1"          1     5.3 -320.32     2.0   111.4     0.9    16.8     0.7    13.8
"Line.MT38107_1"          1    53.9 -373.41    12.8  1364.7     1.0     1.8     0.4     0.8
"Line.MT38108_1"          1    48.3 -378.54    11.6  1236.4     1.7     3.5     0.1     0.3
"Line.MT38109_1"          1    48.5 -378.31    11.6  1242.2     1.6     3.2     0.2     0.4
"Line.MT38111_1"          1    48.8 -378.19    11.6  1245.1     1.6     3.2     0.1     0.2
"Line.MT38112_1"          1    49.3 -377.50    11.8  1262.5     1.7     3.4     0.2     0.5
"Line.MT38155_1"          1    54.6 -372.75    12.9  1381.3     0.9     1.6     0.5     0.9
"Line.MT38665_1"          1    26.1 -297.95     8.9   484.1     1.8     7.1     1.1     4.1
"Line.MT39387_1"          1    54.6 -372.75    12.9  1381.2     0.9     1.6     0.5     0.9
"Line.MT39388_1"          1    54.6 -372.75    12.9  1381.2     0.9     1.6     0.5     0.9
"Line.MT39389_1"          1    54.6 -372.75    12.9  1381.2     0.9     1.6     0.5     0.9
"Line.MT39390_1"          1    54.6 -372.75    12.9  1381.2     0.9     1.6     0.5     0.9
"Line.MT39391_1"          1    54.6 -372.75    12.9  1381.3     0.9     1.6     0.5     0.9
"Line.MT39966_1"          1     7.5 -154.19     5.4   110.1     0.7     9.2     0.8    11.1
"Line.MT40287_1"          1     8.7 -152.61     6.4   129.9     0.9    10.1     1.0    11.5
"Line.MT40294_1"          1    10.0 -152.27     6.6   134.2     0.8     8.0     0.0     0.3
"Line.MT40847_1"          1    54.6 -372.74    12.9  1381.4     0.9     1.6     0.5     0.9
"Line.MT40850_1"          1    54.6 -372.74    12.9  1381.4     0.9     1.6     0.5     0.9
"Line.MT42449_1"          1    20.6 -304.80     6.8   370.0     0.9     4.3     1.0     5.0
"Line.MT43629_1"          1     5.3 -320.32     2.0   111.4     0.9    16.8     0.7    13.8
"Line.MT44203_1"          1    10.2 -152.04     6.7   137.0     0.8     8.2     0.0     0.3
"Line.MT47734_1"          1    11.6 -150.57     7.6   155.3     0.9     7.6     0.0     0.3
"Line.MT56848_1"          1    26.1 -298.19     8.8   480.2     1.8     6.8     1.0     3.8
"Line.MT56849_1"          1    32.9 -289.74    11.4   621.0     2.7     8.1     1.8     5.5
"Line.MT65803_1"          1    33.1 -289.50    11.5   625.0     2.7     8.2     1.9     5.7
"Line.MT65804_1"          1    33.1 -289.50    11.5   625.0     2.7     8.2     1.9     5.7
"Line.MT75296_1"          1    20.6 -304.80     6.8   370.0     0.9     4.3     1.0     5.0
"Line.MT75297_1"          1    21.4 -304.68     6.8   371.9     0.9     4.3     0.0     0.0
"Line.MT75298_1"          1    21.4 -304.69     6.8   371.9     0.9     4.3     0.0     0.0
"Line.MT75299_1"          1    21.4 -304.69     6.8   371.9     0.9     4.3     0.0     0.0
"Line.MT75300_1"          1    21.4 -304.69     6.8   371.9     0.9     4.3     0.0     0.0
"Line.MT75301_1"          1    21.4 -304.69     6.8   371.9     0.9     4.3     0.0     0.0
"Line.MT75304_1"          1    21.9 -303.62     7.2   389.7     1.2     5.4     0.3     1.3
"Line.MT75305_1"          1    21.8 -304.14     7.0   381.0     1.0     4.7     0.1     0.6
"Line.MT75306_1"          1    21.8 -304.14     7.0   381.0     1.0     4.7     0.1     0.6
"Line.MT75307_1"          1    21.8 -304.14     7.0   381.1     1.0     4.7     0.1     0.6
"Line.MT75308_1"          1    21.8 -304.14     7.0   381.1     1.0     4.7     0.1     0.6
"Line.MT75309_1"          1    21.8 -304.14     7.0   381.1     1.0     4.7     0.1     0.6
"Line.MT75310_1"          1    21.8 -304.14     7.0   381.1     1.0     4.7     0.1     0.6
"Line.MT75311_1"          1    21.8 -304.14     7.0   381.1     1.0     4.7     0.1     0.6
"Line.MT75312_1"          1    21.8 -304.14     7.0   381.1     1.0     4.7     0.1     0.6
"Line.MT75313_1"          1    21.8 -304.13     7.0   381.1     1.0     4.7     0.1     0.6
"Line.MT75314_1"          1    21.8 -304.13     7.0   381.1     1.0     4.7     0.1     0.6
"Line.MT75315_1"          1    21.8 -304.13     7.0   381.1     1.0     4.7     0.1     0.6
"Line.MT75316_1"          1    21.7 -304.20     7.0   380.0     1.0     4.6     0.1     0.5
"Line.MT75317_1"          1    21.7 -304.20     7.0   380.0     1.0     4.6     0.1     0.5
"Line.MT75318_1"          1    21.7 -304.20     7.0   380.0     1.0     4.6     0.1     0.5
"Line.MT75319_1"          1    21.7 -304.20     7.0   380.0     1.0     4.6     0.1     0.5
"Line.MT75320_1"          1    21.7 -304.20     7.0   380.0     1.0     4.6     0.1     0.5
"Line.MT75321_1"          1    21.7 -304.20     7.0   380.1     1.0     4.6     0.1     0.5
"Line.MT75322_1"          1    21.7 -304.20     7.0   380.1     1.0     4.6     0.1     0.5
"Line.MT75323_1"          1    21.7 -304.20     7.0   380.1     1.0     4.6     0.1     0.5
"Line.MT75573_1"          1    38.6 -284.15    13.1   714.2     2.6     6.7     2.0     5.2
"Line.MT77173_1"          1    21.7 -304.28     6.9   378.7     1.0     4.5     0.1     0.4
"Line.MT77174_1"          1    21.7 -304.28     6.9   378.7     1.0     4.5     0.1     0.4
"Line.MT77175_1"          1    21.7 -304.28     6.9   378.7     1.0     4.5     0.1     0.4
"Line.MT77176_1"          1    21.7 -304.28     6.9   378.7     1.0     4.5     0.1     0.4
"Line.MT77582_1"          1    52.4 -374.50    12.5  1337.4     1.4     2.6     0.2     0.4
"Line.MT77597_1"          1    33.8 -288.00    11.9   650.0     3.1     9.1     2.3     6.7
"Line.MT77598_1"          1    33.8 -288.00    11.9   650.0     3.1     9.1     2.3     6.7
"Line.MT77599_1"          1    33.7 -288.39    11.8   643.5     3.0     8.8     2.1     6.3
"Line.MT77601_1"          1    33.7 -288.39    11.8   643.5     3.0     8.8     2.1     6.3
"Line.MT77602_1"          1    33.7 -288.41    11.8   643.2     2.9     8.7     2.1     6.3
"Line.MT77604_1"          1    33.8 -288.00    11.9   650.0     3.1     9.1     2.3     6.7
"Line.MT77610_1"          1    25.8 -298.57     8.7   473.8     1.7     6.6     0.9     3.5
"Line.MT77613_1"          1    25.8 -298.57     8.7   473.8     1.7     6.6     0.9     3.5
"Line.MT77616_1"          1    25.8 -298.57     8.7   473.8     1.7     6.6     0.9     3.5
"Line.MT77617_1"          1    26.0 -298.47     8.7   475.5     1.7     6.5     0.9     3.5
"Line.MT78010_1"          1    26.0 -298.45     8.7   475.9     1.7     6.5     0.9     3.5
"Line.MT78011_1"          1    26.1 -297.95     8.9   484.1     1.8     7.1     1.1     4.1
"Line.MT78014_1"          1    26.2 -297.83     8.9   486.2     1.9     7.2     1.1     4.3
"Line.MT78015_1"          1    26.2 -297.83     8.9   486.2     1.9     7.2     1.1     4.3
"Line.MT78018_1"          1    32.9 -289.81    11.4   619.9     2.6     8.0     1.8     5.5
"Line.MT78031_1"          1    33.0 -289.50    11.5   625.0     2.7     8.3     1.9     5.8
"Line.MT78033_1"          1    33.1 -289.50    11.5   625.0     2.7     8.2     1.9     5.7
"Line.MT78034_1"          1    33.1 -289.50    11.5   625.0     2.7     8.2     1.9     5.7
"Line.MT78035_1"          1    33.1 -289.50    11.5   625.0     2.7     8.2     1.9     5.7
"Line.MT78036_1"          1    33.1 -289.50    11.5   625.0     2.7     8.2     1.9     5.7
"Line.MT78039_1"          1    33.1 -289.50    11.5   625.0     2.7     8.2     1.9     5.7
"Line.MT78040_1"          1    33.1 -289.50    11.5   625.0     2.7     8.2     1.9     5.7
"Line.MT78041_1"          1    33.1 -289.50    11.5   624.9     2.7     8.2     1.9     5.7
"Line.MT78042_1"          1    33.6 -288.57    11.8   640.6     2.9     8.7     2.1     6.2
"Line.MT78043_1"          1    33.6 -288.57    11.8   640.6     2.9     8.7     2.1     6.2
"Line.MT78044_1"          1    33.6 -288.57    11.8   640.6     2.9     8.7     2.1     6.2
"Line.MT78045_1"          1    33.6 -288.57    11.8   640.6     2.9     8.7     2.1     6.2
"Line.MT78046_1"          1    33.5 -288.72    11.7   638.0     2.9     8.5     2.0     6.1
"Line.MT78047_1"          1    33.4 -288.83    11.7   636.2     2.9     8.5     2.0     6.1
"Line.MT78049_1"          1    33.4 -288.83    11.7   636.2     2.9     8.5     2.0     6.1
"Line.MT78050_1"          1    33.4 -288.83    11.7   636.2     2.9     8.5     2.0     6.1
"Line.MT78052_1"          1    33.4 -288.83    11.7   636.2     2.9     8.5     2.0     6.1
"Line.MT78053_1"          1    33.4 -288.83    11.7   636.2     2.9     8.5     2.0     6.1
"Line.MT78153_1"          1    33.7 -288.41    11.8   643.2     2.9     8.7     2.1     6.3
"Line.MT78161_1"          1    33.6 -288.57    11.8   640.6     2.9     8.7     2.1     6.2
"Line.MT78187_1"          1    33.7 -288.39    11.8   643.5     3.0     8.8     2.1     6.3
"Line.MT78188_1"          1    33.7 -288.39    11.8   643.5     3.0     8.8     2.1     6.3
"Line.MT78189_1"          1    33.7 -288.41    11.8   643.1     2.9     8.7     2.1     6.3
"Line.MT78190_1"          1    33.7 -288.41    11.8   643.1     2.9     8.7     2.1     6.3
"Line.MT78191_1"          1    33.7 -288.41    11.8   643.1     2.9     8.7     2.1     6.3
"Line.MT78192_1"          1    33.7 -288.41    11.8   643.1     2.9     8.7     2.1     6.3
"Line.MT78193_1"          1    33.7 -288.41    11.8   643.1     2.9     8.7     2.1     6.3
"Line.MT78194_1"          1    33.7 -288.41    11.8   643.2     2.9     8.7     2.1     6.3
"Line.MT78195_1"          1    33.7 -288.41    11.8   643.2     2.9     8.7     2.1     6.3
"Line.MT78196_1"          1    33.7 -288.41    11.8   643.2     2.9     8.7     2.1     6.3
"Line.MT78197_1"          1    33.7 -288.41    11.8   643.2     2.9     8.7     2.1     6.3
"Line.MT78892_1"          1    25.8 -298.57     8.7   473.8     1.7     6.6     0.9     3.5
"Line.MT79523_1"          1    33.4 -288.83    11.7   636.2     2.9     8.5     2.0     6.1
"Line.MT79524_1"          1    33.4 -288.83    11.7   636.2     2.9     8.5     2.0     6.1
"Line.MT79525_1"          1    33.4 -288.89    11.7   635.2     2.8     8.5     2.0     6.0
"Line.MT79528_1"          1    33.4 -289.08    11.6   632.0     2.8     8.3     2.0     5.9
"Line.MT79932_1"          1    47.2 -379.82    11.3  1204.5     1.8     3.7     0.0     0.0
"Line.MT79933_1"          1    47.2 -379.82    11.3  1204.5     1.8     3.7     0.0     0.0
"Line.MT80513_1"          1    33.7 -288.41    11.8   643.2     2.9     8.7     2.1     6.3
"Line.MT80921_1"          1     8.7 -152.61     6.4   129.9     0.9     9.9     1.0    11.5
"Line.MT80972_1"          1     8.7 -152.61     6.4   129.9     0.9     9.9     1.0    11.5
"Line.MT88376_1"          1    54.3 -372.98    12.9  1375.5     0.9     1.7     0.5     1.0
"Line.MT88377_1"          1    54.3 -372.98    12.9  1375.5     0.9     1.7     0.5     1.0
"Line.MT88379_1"          1    54.3 -372.98    12.9  1375.5     0.9     1.7     0.5     1.0
"Line.MT88381_1"          1    54.3 -372.98    12.9  1375.5     0.9     1.7     0.5     1.0
"Line.MT88383_1"          1    54.3 -372.98    12.9  1375.5     0.9     1.7     0.5     1.0
"Line.MT88385_1"          1    54.3 -372.98    12.9  1375.5     0.9     1.7     0.5     1.0
"Line.MT88387_1"          1    54.3 -372.98    12.9  1375.5     0.9     1.7     0.5     1.0
"Line.MT88390_1"          1    54.3 -372.98    12.9  1375.5     0.9     1.7     0.5     1.0
"Line.MT88396_1"          1    53.9 -373.26    12.8  1368.5     1.0     1.9     0.5     0.8
"Line.MT88399_1"          1    54.0 -373.27    12.8  1368.3     0.9     1.7     0.5     1.0
"Line.MT88401_1"          1    54.0 -373.27    12.8  1368.3     0.9     1.7     0.5     1.0
"Line.MT88416_1"          1    53.9 -373.26    12.8  1368.5     1.0     1.9     0.5     0.8
"Line.MT88417_1"          1    53.9 -373.26    12.8  1368.5     1.0     1.9     0.5     0.8
"Line.MT90339_1"          1    21.9 -303.56     7.2   390.7     1.2     5.5     0.3     1.4
"Line.MT90340_1"          1    22.0 -303.50     7.2   391.6     1.2     5.5     0.3     1.4
"Line.MT90341_1"          1    49.5 -377.45    11.8  1263.7     1.7     3.4     0.2     0.4
"Line.MT90342_1"          1    50.0 -376.98    11.9  1275.5     1.6     3.2     0.2     0.4
"Line.MT90343_1"          1    52.5 -374.41    12.5  1339.8     1.4     2.7     0.2     0.4
"Line.MT90344_1"          1    47.2 -379.82    11.3  1204.5     1.8     3.7     0.0     0.0
"Line.MT90345_1"          1    48.3 -378.54    11.6  1236.5     1.7     3.5     0.1     0.3
"Line.MT90346_1"          1    48.9 -378.20    11.6  1245.1     1.5     3.0     0.0     0.1
"Line.MT91897_1"          1    47.4 -379.68    11.3  1208.0     1.8     3.7     0.0     0.0
"Line.MT92784_1"          1    21.9 -303.56     7.2   390.7     1.2     5.5     0.3     1.4
"Line.MT93355_1"          1    33.4 -289.08    11.6   632.0     2.8     8.3     2.0     5.9
"Line.MT93357_1"          1    33.4 -289.08    11.6   632.0     2.8     8.3     2.0     5.9
"Line.MT93834_1"          1    47.7 -379.28    11.4  1218.0     1.8     3.7     0.0     0.0
"Line.MT93867_1"          1    38.5 -284.15    13.1   714.2     2.6     6.8     2.0     5.2
"Line.MT94726_1"          1    33.7 -288.41    11.8   643.2     2.9     8.7     2.1     6.3
"Line.MT94727_1"          1    33.7 -288.41    11.8   643.2     2.9     8.7     2.1     6.3
"Line.MT95785_1"          1    33.4 -288.88    11.7   635.3     2.8     8.5     2.0     6.0
"Line.MT95786_1"          1    33.4 -288.89    11.7   635.2     2.8     8.5     2.0     6.0
"Line.MT98083_1"          1    47.2 -379.82    11.3  1204.5     1.8     3.7     0.0     0.0
"Line.RAMAL_26642"        1    48.0  -19.91    70.7   192.3     0.1     0.3     0.0     0.0
"Line.RAMAL_45180"        1    25.6  -42.44    37.6   102.2     0.0     0.0     0.0     0.0
"Transformer.RT39_627"    1   156.3  133.63   679.6   498.3     0.3     0.2     0.0     0.0
"Transformer.RT40_1296"   1   316.3  271.48   690.5   506.4     1.4     0.4     0.0     0.0
"Transformer.RT40_2966"   1   144.0  121.19   625.6   458.8     0.3     0.2     0.0     0.0
